*Heading
** Job name: Job-1 Model name: Model-1
** Generated by: Abaqus/CAE 6.13-1
*Preprint, echo=NO, model=NO, history=NO, contact=NO
**
** PARTS
**
*Part, name=Part-1
*Node
      1,           1.,           1.,           3.
      2,           1.,         0.75,           3.
      3,           1.,          0.5,           3.
      4,           1.,         0.25,           3.
      5,           1.,           0.,           3.
      6,           1.,           1.,         2.75
      7,           1.,         0.75,         2.75
      8,           1.,          0.5,         2.75
      9,           1.,         0.25,         2.75
     10,           1.,           0.,         2.75
     11,           1.,           1.,          2.5
     12,           1.,         0.75,          2.5
     13,           1.,          0.5,          2.5
     14,           1.,         0.25,          2.5
     15,           1.,           0.,          2.5
     16,           1.,           1.,         2.25
     17,           1.,         0.75,         2.25
     18,           1.,          0.5,         2.25
     19,           1.,         0.25,         2.25
     20,           1.,           0.,         2.25
** ... 305 like lines cut
*Element, type=C3D8R
  1,  66,  67,  72,  71,   1,   2,   7,   6
  2,  67,  68,  73,  72,   2,   3,   8,   7
  3,  68,  69,  74,  73,   3,   4,   9,   8
  4,  69,  70,  75,  74,   4,   5,  10,   9
  5,  71,  72,  77,  76,   6,   7,  12,  11
  6,  72,  73,  78,  77,   7,   8,  13,  12
  7,  73,  74,  79,  78,   8,   9,  14,  13
  8,  74,  75,  80,  79,   9,  10,  15,  14
  9,  76,  77,  82,  81,  11,  12,  17,  16
 10,  77,  78,  83,  82,  12,  13,  18,  17
 11,  78,  79,  84,  83,  13,  14,  19,  18
 12,  79,  80,  85,  84,  14,  15,  20,  19
 13,  81,  82,  87,  86,  16,  17,  22,  21
 14,  82,  83,  88,  87,  17,  18,  23,  22
 15,  83,  84,  89,  88,  18,  19,  24,  23
 16,  84,  85,  90,  89,  19,  20,  25,  24
 17,  86,  87,  92,  91,  21,  22,  27,  26
 18,  87,  88,  93,  92,  22,  23,  28,  27
 19,  88,  89,  94,  93,  23,  24,  29,  28
 20,  89,  90,  95,  94,  24,  25,  30,  29
** ... 172 like lines cut
*Nset, nset=Set-1
  61,  62,  63,  64,  65, 126, 127, 128, 129, 130, 191, 192, 193, 194, 195, 256
 257, 258, 259, 260, 321, 322, 323, 324, 325
*Elset, elset=Set-1
  45,  46,  47,  48,  93,  94,  95,  96, 141, 142, 143, 144, 189, 190, 191, 192
*Nset, nset=Set-2
   1,   2,   3,   4,   5,  66,  67,  68,  69,  70, 131, 132, 133, 134, 135, 196
 197, 198, 199, 200, 261, 262, 263, 264, 265
*Elset, elset=Set-2
   1,   2,   3,   4,  49,  50,  51,  52,  97,  98,  99, 100, 145, 146, 147, 148
*End Part
**  
**
** ASSEMBLY
**
*Assembly, name=Assembly
**  
*Instance, name=Part-1-1, part=Part-1
*End Instance
**  
*End Assembly
** 
** MATERIALS
** 
*Material, name=steel
*Elastic
26., 0.3
