*Heading
** Job name: Job-1 Model name: Model-1
** Generated by: Abaqus/CAE 6.13-1
*Preprint, echo=NO, model=NO, history=NO, contact=NO
**
** PARTS
**
*Part, name=Part-1
*Node
      1,  0.002959084, 0.000493783795
      2, 0.00263842125, 0.00142784219
      3, 0.00236742152, 0.00184263813
      4, 0.00164084451, 0.00251149945
      5, 0.00120508624, 0.00274731987
      6, 0.000247738033, 0.00298975338
      7, -0.000247738033, 0.00298975338
      8, -0.00120508624, 0.00274731987
      9, -0.00164084451, 0.00251149945
     10, -0.00236742152, 0.00184263813
     11, -0.00263842125, 0.00142784219
     12, -0.002959084, 0.000493783795
     13, -0.00300000003,           0.
     14, -0.002959084, -0.000493783795
     15, -0.00263842125, -0.00142784219
     16, -0.00236742152, -0.00184263813
     17, -0.00164084451, -0.00251149945
     18, -0.00120508624, -0.00274731987
     19, -0.000247738033, -0.00298975338
     20, 0.000247738033, -0.00298975338
** ... 136 like lines cut
*Element, type=CPS4R
  1,  48,  96, 141,  83
  2,  47, 140, 125,  82
  3,  18,  17,  90, 125
  4,  90,  46,  82, 125
  5,  46,  90,  91,  45
  6, 118,  44,  81, 131
  7,  93,  43,  80,  92
  8, 130,  79,  42, 117
  9,  95,  78,  41,  94
 10,  94,  41,  79, 130
 11,  48,  49, 136,  96
 12,  98, 134,  66,  20
 13,  21,  97,  99,  22
 14,  99,  97,  85,  51
 15,  95, 100,  40,  78
 16, 150,  62,  11, 151
 17,  39,  40, 100, 124
 18,  77, 101, 129,  38
 19, 129, 102,  76,  38
 20, 138,  75,  36, 139
** ... 92 like lines cut
*Nset, nset=Set-1, generate
   1,  156,    1
*Elset, elset=Set-1, generate
   1,  112,    1
** Section: Section-1
*Solid Section, elset=Set-1, material=rubber, ref node=Part-1-RefPt_
1., 
*End Part
**  
**
** ASSEMBLY
**
*Assembly, name=Assembly
**  
*Instance, name=Part-1-1, part=Part-1
*End Instance
**  
*Elset, elset=_Surf-1_S1, internal, instance=Part-1-1
   3,  50,  54,  65,  80,  83,  84,  95,  97, 106, 108
*Elset, elset=_Surf-1_S3, internal, instance=Part-1-1
 12, 52, 66, 69, 70, 73, 77, 85, 92
*Elset, elset=_Surf-1_S4, internal, instance=Part-1-1
  13,  46,  49,  58,  62, 105
*Elset, elset=_Surf-1_S2, internal, instance=Part-1-1
 16, 47, 51, 53, 55, 59, 68, 76, 81, 82, 86, 87
*Surface, type=ELEMENT, name=Surf-1
_Surf-1_S1, S1
_Surf-1_S3, S3
_Surf-1_S4, S4
_Surf-1_S2, S2
*End Assembly
** 
** MATERIALS
** 
*Material, name=rubber
*Hyperelastic, mooney-rivlin
390000.,15000., 2e-09
** ----------------------------------------------------------------
** 
** STEP: Step-1
** 
*Step, name=Step-1, nlgeom=YES
*Static
1., 1., 1e-05, 1.
** 
** LOADS
** 
** Name: Load-1   Type: Pressure
*Dsload
Surf-1, P, 1000.
** 
** OUTPUT REQUESTS
** 
*Restart, write, frequency=0
** 
** FIELD OUTPUT: F-Output-1
** 
*Output, field, variable=PRESELECT
** 
** HISTORY OUTPUT: H-Output-1
** 
*Output, history, variable=PRESELECT
*End Step
