*Heading
** Job name: Job-1 Model name: Model-1
** Generated by: Abaqus/CAE 6.13-1
*Preprint, echo=NO, model=NO, history=NO, contact=NO
**
** PARTS
**
*Part, name=Part-1
*Node
      1,           1.,           1.,           1.
      2,           1.,        0.875,           1.
      3,           1.,         0.75,           1.
      4,           1.,        0.625,           1.
      5,           1.,          0.5,           1.
      6,           1.,        0.375,           1.
      7,           1.,         0.25,           1.
      8,           1.,        0.125,           1.
      9,           1.,           0.,           1.
     10,           1.,           1.,        0.875
     11,           1.,        0.875,        0.875
     12,           1.,         0.75,        0.875
     13,           1.,        0.625,        0.875
     14,           1.,          0.5,        0.875
     15,           1.,        0.375,        0.875
     16,           1.,         0.25,        0.875
     17,           1.,        0.125,        0.875
     18,           1.,           0.,        0.875
     19,           1.,           1.,         0.75
     20,           1.,        0.875,         0.75
** ... 709 like lines cut
*Element, type=C3D8R
  1,  82,  83,  92,  91,   1,   2,  11,  10
  2,  83,  84,  93,  92,   2,   3,  12,  11
  3,  84,  85,  94,  93,   3,   4,  13,  12
  4,  85,  86,  95,  94,   4,   5,  14,  13
  5,  86,  87,  96,  95,   5,   6,  15,  14
  6,  87,  88,  97,  96,   6,   7,  16,  15
  7,  88,  89,  98,  97,   7,   8,  17,  16
  8,  89,  90,  99,  98,   8,   9,  18,  17
  9,  91,  92, 101, 100,  10,  11,  20,  19
 10,  92,  93, 102, 101,  11,  12,  21,  20
 11,  93,  94, 103, 102,  12,  13,  22,  21
 12,  94,  95, 104, 103,  13,  14,  23,  22
 13,  95,  96, 105, 104,  14,  15,  24,  23
 14,  96,  97, 106, 105,  15,  16,  25,  24
 15,  97,  98, 107, 106,  16,  17,  26,  25
 16,  98,  99, 108, 107,  17,  18,  27,  26
 17, 100, 101, 110, 109,  19,  20,  29,  28
 18, 101, 102, 111, 110,  20,  21,  30,  29
 19, 102, 103, 112, 111,  21,  22,  31,  30
 20, 103, 104, 113, 112,  22,  23,  32,  31
** ... 492 like lines cut
*Nset, nset=Set-1, generate
   1,  729,    1
*Elset, elset=Set-1, generate
   1,  512,    1
** Section: Section-1
*Solid Section, elset=Set-1, material=rubber
,
*End Part
**  
**
** ASSEMBLY
**
*Assembly, name=Assembly
**  
*Instance, name=Part-1-1, part=Part-1
*End Instance
**  
*Nset, nset=Set-1, instance=Part-1-1, generate
 649,  729,    1
*Elset, elset=Set-1, instance=Part-1-1, generate
 449,  512,    1
*Nset, nset=Set-2, instance=Part-1-1, generate
   9,  729,    9
*Elset, elset=Set-2, instance=Part-1-1, generate
   8,  512,    8
*Nset, nset=Set-3, instance=Part-1-1
  73,  74,  75,  76,  77,  78,  79,  80,  81, 154, 155, 156, 157, 158, 159, 160
 161, 162, 235, 236, 237, 238, 239, 240, 241, 242, 243, 316, 317, 318, 319, 320
 321, 322, 323, 324, 397, 398, 399, 400, 401, 402, 403, 404, 405, 478, 479, 480
 481, 482, 483, 484, 485, 486, 559, 560, 561, 562, 563, 564, 565, 566, 567, 640
 641, 642, 643, 644, 645, 646, 647, 648, 721, 722, 723, 724, 725, 726, 727, 728
 729,
*Elset, elset=Set-3, instance=Part-1-1
  57,  58,  59,  60,  61,  62,  63,  64, 121, 122, 123, 124, 125, 126, 127, 128
 185, 186, 187, 188, 189, 190, 191, 192, 249, 250, 251, 252, 253, 254, 255, 256
 313, 314, 315, 316, 317, 318, 319, 320, 377, 378, 379, 380, 381, 382, 383, 384
 441, 442, 443, 444, 445, 446, 447, 448, 505, 506, 507, 508, 509, 510, 511, 512
*Elset, elset=_Surf-1_S2, internal, instance=Part-1-1, generate
  1,  64,   1
*Surface, type=ELEMENT, name=Surf-1
_Surf-1_S2, S2
*Elset, elset=_Surf-2_S3, internal, instance=Part-1-1
   1,   2,   3,   4,   5,   6,   7,   8,  65,  66,  67,  68,  69,  70,  71,  72
 129, 130, 131, 132, 133, 134, 135, 136, 193, 194, 195, 196, 197, 198, 199, 200
 257, 258, 259, 260, 261, 262, 263, 264, 321, 322, 323, 324, 325, 326, 327, 328
 385, 386, 387, 388, 389, 390, 391, 392, 449, 450, 451, 452, 453, 454, 455, 456
*Surface, type=ELEMENT, name=Surf-2
_Surf-2_S3, S3
*End Assembly
** 
** MATERIALS
** 
*Material, name=rubber
*Hyperelastic, neo hooke
 0.4, 2e-05
** 
** BOUNDARY CONDITIONS
** 
** Name: BC-1 Type: Displacement/Rotation
*Boundary
Set-1, 1, 1
** Name: BC-2 Type: Displacement/Rotation
*Boundary
Set-2, 2, 2
** Name: BC-3 Type: Displacement/Rotation
*Boundary
Set-3, 3, 3
** ----------------------------------------------------------------
** 
** STEP: Step-1
** 
*Step, name=Step-1, nlgeom=YES, inc=100000
*Static
0.001, 1., 1e-09, 1.
** 
** LOADS
** 
** Name: Load-1   Type: Pressure
*Dsload
Surf-1, P, 0.5
** Name: Load-2   Type: Pressure
*Dsload
Surf-2, P, 0.5
** 
** OUTPUT REQUESTS
** 
*Restart, write, frequency=0
** 
** FIELD OUTPUT: F-Output-1
** 
*Output, field, variable=PRESELECT
** 
** HISTORY OUTPUT: H-Output-1
** 
*Output, history, variable=PRESELECT
*End Step
