*Heading
** Job name: Job-1 Model name: Model-1
** Generated by: Abaqus/CAE 6.13-1
*Preprint, echo=NO, model=NO, history=NO, contact=NO
**
** PARTS
**
*Part, name=Part-1
*Node
      1,           0., 0.00400000019
      2,           0., 0.00389999989
      3,           0., 0.00380000006
      4,           0.,       0.0037
      5,           0., 0.00359999994
      6,           0., 0.00350000011
      7,           0., 0.00340000005
      8,           0., 0.00329999998
      9,           0., 0.00319999992
     10,           0., 0.00310000009
     11,           0., 0.00300000003
     12, 0.000114224204, 0.00399836898
     13, 0.000111368601, 0.00389840966
     14, 0.000108512992, 0.00379845034
     15, 0.000105657389, 0.00369849103
     16, 0.00010280178, 0.00359853194
     17,  9.99461772e-05, 0.00349857262
     18,  9.70905749e-05, 0.00339861354
     19,  9.42349652e-05, 0.00329865422
     20,  9.13793629e-05, 0.0031986949
** ... 596 like lines cut
*Element, type=CPE4R
  1,   1,   2,  13,  12
  2,   2,   3,  14,  13
  3,   3,   4,  15,  14
  4,   4,   5,  16,  15
  5,   5,   6,  17,  16
  6,   6,   7,  18,  17
  7,   7,   8,  19,  18
  8,   8,   9,  20,  19
  9,   9,  10,  21,  20
 10,  10,  11,  22,  21
 11,  12,  13,  24,  23
 12,  13,  14,  25,  24
 13,  14,  15,  26,  25
 14,  15,  16,  27,  26
 15,  16,  17,  28,  27
 16,  17,  18,  29,  28
 17,  18,  19,  30,  29
 18,  19,  20,  31,  30
 19,  20,  21,  32,  31
 20,  21,  22,  33,  32
** ... 530 like lines cut
*Nset, nset=Set-1, generate
   1,  616,    1
*Elset, elset=Set-1, generate
   1,  550,    1
** Section: Section-1
*Solid Section, elset=Set-1, material=rubber
1.,
*End Part
**  
**
** ASSEMBLY
**
*Assembly, name=Assembly
**  
*Instance, name=Part-1-1, part=Part-1
*End Instance
**  
*Nset, nset=Set-1, instance=Part-1-1, generate
  1,  11,   1
*Elset, elset=Set-1, instance=Part-1-1, generate
  1,  10,   1
*Nset, nset=Set-2, instance=Part-1-1, generate
 606,  616,    1
*Elset, elset=Set-2, instance=Part-1-1, generate
 541,  550,    1
*Elset, elset=_Surf-1_S2, internal, instance=Part-1-1, generate
  10,  550,   10
*Surface, type=ELEMENT, name=Surf-1
_Surf-1_S2, S2
*End Assembly
** 
** MATERIALS
** 
*Material, name=rubber
*Hyperelastic, mooney-rivlin
390000.,15000., 2e-09
** 
** BOUNDARY CONDITIONS
** 
** Name: BC-1 Type: Displacement/Rotation
*Boundary
Set-1, 1, 0.0
** Name: BC-2 Type: Displacement/Rotation
*Boundary
Set-2, 2, 0.0
** ----------------------------------------------------------------
** 
** STEP: Step-1
** 
*Step, name=Step-1, nlgeom=YES
*Static
1., 1., 1e-05, 1.
** 
** LOADS
** 
** Name: Load-1   Type: Pressure
*Dsload
Surf-1, P, 100.
** 
** OUTPUT REQUESTS
** 
*Restart, write, frequency=0
** 
** FIELD OUTPUT: F-Output-1
** 
*Output, field, variable=PRESELECT
** 
** HISTORY OUTPUT: H-Output-1
** 
*Output, history, variable=PRESELECT
*End Step
