*Heading
** Job name: Job-1 Model name: Model-1
** Generated by: Abaqus/CAE 6.13-1
*Preprint, echo=NO, model=NO, history=NO, contact=NO
**
** PARTS
**
*Part, name=Part-1
*Node
      1,           8.,           2.,           2.
      2,           8.,           1.,           2.
      3,           8.,           0.,           2.
      4,           8.,           2.,           1.
      5,           8.,           1.,           1.
      6,           8.,           0.,           1.
      7,           8.,           2.,           0.
      8,           8.,           1.,           0.
      9,           8.,           0.,           0.
     10,           7.,           2.,           2.
     11,           7.,           1.,           2.
     12,           7.,           0.,           2.
     13,           7.,           2.,           1.
     14,           7.,           1.,           1.
     15,           7.,           0.,           1.
     16,           7.,           2.,           0.
     17,           7.,           1.,           0.
     18,           7.,           0.,           0.
     19,           6.,           2.,           2.
     20,           6.,           1.,           2.
** ... 61 like lines cut
*Element, type=C3D8R
 1, 10, 11, 14, 13,  1,  2,  5,  4
 2, 11, 12, 15, 14,  2,  3,  6,  5
 3, 13, 14, 17, 16,  4,  5,  8,  7
 4, 14, 15, 18, 17,  5,  6,  9,  8
 5, 19, 20, 23, 22, 10, 11, 14, 13
 6, 20, 21, 24, 23, 11, 12, 15, 14
 7, 22, 23, 26, 25, 13, 14, 17, 16
 8, 23, 24, 27, 26, 14, 15, 18, 17
 9, 28, 29, 32, 31, 19, 20, 23, 22
10, 29, 30, 33, 32, 20, 21, 24, 23
11, 31, 32, 35, 34, 22, 23, 26, 25
12, 32, 33, 36, 35, 23, 24, 27, 26
13, 37, 38, 41, 40, 28, 29, 32, 31
14, 38, 39, 42, 41, 29, 30, 33, 32
15, 40, 41, 44, 43, 31, 32, 35, 34
16, 41, 42, 45, 44, 32, 33, 36, 35
17, 46, 47, 50, 49, 37, 38, 41, 40
18, 47, 48, 51, 50, 38, 39, 42, 41
19, 49, 50, 53, 52, 40, 41, 44, 43
20, 50, 51, 54, 53, 41, 42, 45, 44
** ... 12 like lines cut
*Nset, nset=Set-1, generate
 73,  81,   1
*Elset, elset=Set-1, generate
 29,  32,   1
*Nset, nset=Set-2, generate
  1,  79,   3
*Elset, elset=Set-2, generate
  1,  31,   2
*Nset, nset=Set-3, generate
  1,  81,   1
*Elset, elset=Set-3, generate
  1,  32,   1
** Section: Section-1
*Solid Section, elset=Set-3, material=rubber
,
*End Part
**  
**
** ASSEMBLY
**
*Assembly, name=Assembly
**  
*Instance, name=Part-1-1, part=Part-1
*End Instance
**  
*Nset, nset=Set-1, instance=Part-1-1, generate
 73,  81,   1
*Elset, elset=Set-1, instance=Part-1-1, generate
 29,  32,   1
*Elset, elset=_Surf-1_S6, internal, instance=Part-1-1, generate
  1,  31,   2
*Surface, type=ELEMENT, name=Surf-1
_Surf-1_S6, S6
*End Assembly
** 
** MATERIALS
** 
*Material, name=rubber
*Hyperelastic, neo hooke
400000., 2e-11
** 
** BOUNDARY CONDITIONS
** 
** Name: BC-1 Type: Displacement/Rotation
*Boundary
Set-1, 1, 1
Set-1, 2, 2
Set-1, 3, 3
** ----------------------------------------------------------------
** 
** STEP: Step-1
** 
*Step, name=Step-1, nlgeom=YES, inc=10000
*Static
0.01, 1., 1e-05, 1.
** 
** LOADS
** 
** Name: Load-1   Type: Pressure
*Dsload
Surf-1, P, 4000.
** 
** OUTPUT REQUESTS
** 
*Restart, write, frequency=0
** 
** FIELD OUTPUT: F-Output-1
** 
*Output, field, variable=PRESELECT
** 
** HISTORY OUTPUT: H-Output-1
** 
*Output, history, variable=PRESELECT
*End Step
