*Heading
** Job name: Job-1 Model name: Model-1
** Generated by: Abaqus/CAE 6.13-1
*Preprint, echo=NO, model=NO, history=NO, contact=NO
**
** PARTS
**
*Part, name=Part-1
*Node
      1,           8.,           2.,           2.
      2,           8.,         1.75,           2.
      3,           8.,          1.5,           2.
      4,           8.,         1.25,           2.
      5,           8.,           1.,           2.
      6,           8.,         0.75,           2.
      7,           8.,          0.5,           2.
      8,           8.,         0.25,           2.
      9,           8.,           0.,           2.
     10,           8.,           2.,         1.75
     11,           8.,         1.75,         1.75
     12,           8.,          1.5,         1.75
     13,           8.,         1.25,         1.75
     14,           8.,           1.,         1.75
     15,           8.,         0.75,         1.75
     16,           8.,          0.5,         1.75
     17,           8.,         0.25,         1.75
     18,           8.,           0.,         1.75
     19,           8.,           2.,          1.5
     20,           8.,         1.75,          1.5
** ... 2653 like lines cut
*Element, type=C3D8R
   1,   82,   83,   92,   91,    1,    2,   11,   10
   2,   83,   84,   93,   92,    2,    3,   12,   11
   3,   84,   85,   94,   93,    3,    4,   13,   12
   4,   85,   86,   95,   94,    4,    5,   14,   13
   5,   86,   87,   96,   95,    5,    6,   15,   14
   6,   87,   88,   97,   96,    6,    7,   16,   15
   7,   88,   89,   98,   97,    7,    8,   17,   16
   8,   89,   90,   99,   98,    8,    9,   18,   17
   9,   91,   92,  101,  100,   10,   11,   20,   19
  10,   92,   93,  102,  101,   11,   12,   21,   20
  11,   93,   94,  103,  102,   12,   13,   22,   21
  12,   94,   95,  104,  103,   13,   14,   23,   22
  13,   95,   96,  105,  104,   14,   15,   24,   23
  14,   96,   97,  106,  105,   15,   16,   25,   24
  15,   97,   98,  107,  106,   16,   17,   26,   25
  16,   98,   99,  108,  107,   17,   18,   27,   26
  17,  100,  101,  110,  109,   19,   20,   29,   28
  18,  101,  102,  111,  110,   20,   21,   30,   29
  19,  102,  103,  112,  111,   21,   22,   31,   30
  20,  103,  104,  113,  112,   22,   23,   32,   31
** ... 2028 like lines cut
*Nset, nset=Set-1, generate
 2593,  2673,     1
*Elset, elset=Set-1, generate
 1985,  2048,     1
*Nset, nset=Set-2, generate
    1,  2665,     9
*Elset, elset=Set-2, generate
    1,  2041,     8
*Nset, nset=Set-3, generate
    1,  2673,     1
*Elset, elset=Set-3, generate
    1,  2048,     1
** Section: Section-1
*Solid Section, elset=Set-3, material=rubber
,
*End Part
**  
**
** ASSEMBLY
**
*Assembly, name=Assembly
**  
*Instance, name=Part-1-1, part=Part-1
*End Instance
**  
*Nset, nset=Set-1, instance=Part-1-1, generate
 2593,  2673,     1
*Elset, elset=Set-1, instance=Part-1-1, generate
 1985,  2048,     1
*Elset, elset=_Surf-1_S6, internal, instance=Part-1-1, generate
    1,  2041,     8
*Surface, type=ELEMENT, name=Surf-1
_Surf-1_S6, S6
*End Assembly
** 
** MATERIALS
** 
*Material, name=rubber
*Hyperelastic, neo hooke
400000., 2e-11
** 
** BOUNDARY CONDITIONS
** 
** Name: BC-1 Type: Displacement/Rotation
*Boundary
Set-1, 1, 1
Set-1, 2, 2
Set-1, 3, 3
** ----------------------------------------------------------------
** 
** STEP: Step-1
** 
*Step, name=Step-1, nlgeom=YES, inc=10000
*Static
0.01, 1., 1e-05, 1.
** 
** LOADS
** 
** Name: Load-1   Type: Pressure
*Dsload
Surf-1, P, 1000.
** 
** OUTPUT REQUESTS
** 
*Restart, write, frequency=0
** 
** FIELD OUTPUT: F-Output-1
** 
*Output, field, variable=PRESELECT
** 
** HISTORY OUTPUT: H-Output-1
** 
*Output, history, variable=PRESELECT
*End Step
