*Heading
** Job name: vessel Model name: Model-1
** Generated by: Abaqus/CAE 6.13-1
*Preprint, echo=NO, model=NO, history=NO, contact=NO
**
** PARTS
**
*Part, name=Part-1
*Node
      1, 0.00300000003,           0., 0.00499999989
      2, 0.00299235643, 0.000214017549, 0.00499999989
      3, 0.00296946429, 0.00042694452, 0.00499999989
      4, 0.00293144048, 0.000637695892, 0.00499999989
      5, 0.00287847896, 0.000845197646, 0.00499999989
      6, 0.00281084911, 0.0010483925, 0.00499999989
      7, 0.00272889598,  0.001246245, 0.00499999989
      8, 0.00263303705, 0.00143774692, 0.00499999989
      9, 0.00252376054, 0.00162192248, 0.00499999989
     10, 0.00240162364, 0.00179783301, 0.00499999989
     11, 0.0022672487, 0.00196458213, 0.00499999989
     12, 0.00212132023, 0.00212132023, 0.00499999989
     13, 0.00196458213, 0.0022672487, 0.00499999989
     14, 0.00179783301, 0.00240162364, 0.00499999989
     15, 0.00162192248, 0.00252376054, 0.00499999989
     16, 0.00143774692, 0.00263303705, 0.00499999989
     17,  0.001246245, 0.00272889598, 0.00499999989
     18, 0.0010483925, 0.00281084911, 0.00499999989
     19, 0.000845197646, 0.00287847896, 0.00499999989
     20, 0.000637695892, 0.00293144048, 0.00499999989
** ... 2395 like lines cut
*Element, type=C3D8R
   1,  484,  485,  508,  507,    1,    2,   25,   24
   2,  485,  486,  509,  508,    2,    3,   26,   25
   3,  486,  487,  510,  509,    3,    4,   27,   26
   4,  487,  488,  511,  510,    4,    5,   28,   27
   5,  488,  489,  512,  511,    5,    6,   29,   28
   6,  489,  490,  513,  512,    6,    7,   30,   29
   7,  490,  491,  514,  513,    7,    8,   31,   30
   8,  491,  492,  515,  514,    8,    9,   32,   31
   9,  492,  493,  516,  515,    9,   10,   33,   32
  10,  493,  494,  517,  516,   10,   11,   34,   33
  11,  494,  495,  518,  517,   11,   12,   35,   34
  12,  495,  496,  519,  518,   12,   13,   36,   35
  13,  496,  497,  520,  519,   13,   14,   37,   36
  14,  497,  498,  521,  520,   14,   15,   38,   37
  15,  498,  499,  522,  521,   15,   16,   39,   38
  16,  499,  500,  523,  522,   16,   17,   40,   39
  17,  500,  501,  524,  523,   17,   18,   41,   40
  18,  501,  502,  525,  524,   18,   19,   42,   41
  19,  502,  503,  526,  525,   19,   20,   43,   42
  20,  503,  504,  527,  526,   20,   21,   44,   43
** ... 1740 like lines cut
*Nset, nset=Set-1, generate
    1,  2415,     1
*Elset, elset=Set-1, generate
    1,  1760,     1
** Section: Section-1
*Solid Section, elset=Set-1, material=rubber
,
*End Part
**  
**
** ASSEMBLY
**
*Assembly, name=Assembly
**  
*Instance, name=Part-1-1, part=Part-1
*End Instance
**  
*Nset, nset=Set-1, instance=Part-1-1, generate
   23,  2415,    23
*Elset, elset=Set-1, instance=Part-1-1, generate
   22,  1760,    22
*Nset, nset=Set-2, instance=Part-1-1, generate
    1,  2393,    23
*Elset, elset=Set-2, instance=Part-1-1, generate
    1,  1739,    22
*Nset, nset=Set-3, instance=Part-1-1
  461,  462,  463,  464,  465,  466,  467,  468,  469,  470,  471,  472,  473,  474,  475,  476
  477,  478,  479,  480,  481,  482,  483,  944,  945,  946,  947,  948,  949,  950,  951,  952
  953,  954,  955,  956,  957,  958,  959,  960,  961,  962,  963,  964,  965,  966, 1427, 1428
 1429, 1430, 1431, 1432, 1433, 1434, 1435, 1436, 1437, 1438, 1439, 1440, 1441, 1442, 1443, 1444
 1445, 1446, 1447, 1448, 1449, 1910, 1911, 1912, 1913, 1914, 1915, 1916, 1917, 1918, 1919, 1920
 1921, 1922, 1923, 1924, 1925, 1926, 1927, 1928, 1929, 1930, 1931, 1932, 2393, 2394, 2395, 2396
 2397, 2398, 2399, 2400, 2401, 2402, 2403, 2404, 2405, 2406, 2407, 2408, 2409, 2410, 2411, 2412
 2413, 2414, 2415
*Elset, elset=Set-3, instance=Part-1-1
  419,  420,  421,  422,  423,  424,  425,  426,  427,  428,  429,  430,  431,  432,  433,  434
  435,  436,  437,  438,  439,  440,  859,  860,  861,  862,  863,  864,  865,  866,  867,  868
  869,  870,  871,  872,  873,  874,  875,  876,  877,  878,  879,  880, 1299, 1300, 1301, 1302
 1303, 1304, 1305, 1306, 1307, 1308, 1309, 1310, 1311, 1312, 1313, 1314, 1315, 1316, 1317, 1318
 1319, 1320, 1739, 1740, 1741, 1742, 1743, 1744, 1745, 1746, 1747, 1748, 1749, 1750, 1751, 1752
 1753, 1754, 1755, 1756, 1757, 1758, 1759, 1760
*Elset, elset=_Surf-1_S2, internal, instance=Part-1-1, generate
   1,  440,    1
*Surface, type=ELEMENT, name=Surf-1
_Surf-1_S2, S2
*End Assembly
** 
** MATERIALS
** 
*Material, name=rubber
*Hyperelastic, mooney-rivlin
195000., 7500., 2e-11
** 
** BOUNDARY CONDITIONS
** 
** Name: BC-1 Type: Displacement/Rotation
*Boundary
Set-1, 1, 0.0
** Name: BC-2 Type: Displacement/Rotation
*Boundary
Set-2, 2, 0.0
** Name: BC-3 Type: Displacement/Rotation
*Boundary
Set-3, 3, 0.0
** ----------------------------------------------------------------
** 
** STEP: Step-1
** 
*Step, name=Step-1, nlgeom=YES
*Static
0.01, 1., 1e-05, 1.
** 
** LOADS
** 
** Name: Load-1   Type: Pressure
*Dsload
Surf-1, P, 50000.
** 
** OUTPUT REQUESTS
** 
*Restart, write, frequency=0
** 
** FIELD OUTPUT: F-Output-1
** 
*Output, field, variable=PRESELECT
** 
** HISTORY OUTPUT: H-Output-1
** 
*Output, history, variable=PRESELECT
*End Step
